data_MOF-200

_audit_creation_method RASPA-1.0
_audit_creation_date 2022-3-30
_audit_author_name ''

_citation_author_name        'H. Furukawa, N. Ko, Y.B. Go, N. Aratani, S.B. Choi, E. Choi, A.O. Yazaydin, R.Q. Snurr, M. Oâ€™Keeffe, J. Kim, and O.M. Yaghi'
_citation_title              'Ultrahigh Porosity in Metal-Organic Frameworks'
_citation_journal_abbrev     'Science'
_citation_journal_volume     329
_citation_page_first         424
_citation_page_last          428
_citation_year               2010

_cell_length_a    52.022
_cell_length_b    52.022
_cell_length_c    42.316
_cell_angle_alpha 90
_cell_angle_beta  90
_cell_angle_gamma 120
_cell_volume      99176.6

_symmetry_cell_setting          triclinic
_symmetry_space_group_name_Hall 'P 1'
_symmetry_space_group_name_H-M  'P 1'
_symmetry_Int_Tables_number     1

_symmetry_equiv_pos_as_xyz 'x,y,z'

loop_
_atom_site_label
_atom_site_type_symbol
_atom_site_fract_x
_atom_site_fract_y
_atom_site_fract_z
_atom_site_charge
Zn1      Zn     0.207964000000     0.356707000000     0.257988000000     0          
Zn1      Zn     0.147416000000     0.307032000000     0.287057000000     0          
Zn1      Zn     0.643294000000     0.851256000000     0.257988000000     0          
Zn1      Zn     0.692969000000     0.840384000000     0.287057000000     0          
Zn1      Zn     0.148742000000     0.792036000000     0.257988000000     0          
Zn1      Zn     0.159616000000     0.852583000000     0.287057000000     0          
Zn1      Zn     0.643294000000     0.792036000000     0.242012000000     0          
Zn1      Zn     0.692967000000     0.852583000000     0.212943000000     0          
Zn1      Zn     0.295759000000     0.634839000000     0.728100000000     0          
Zn1      Zn     0.148743000000     0.356707000000     0.242012000000     0          
Zn1      Zn     0.159615000000     0.307032000000     0.212943000000     0          
Zn1      Zn     0.339080000000     0.704240000000     0.728100000000     0          
Zn1      Zn     0.207962000000     0.851256000000     0.242012000000     0          
Zn1      Zn     0.147415000000     0.840384000000     0.212943000000     0          
Zn1      Zn     0.365161000000     0.660920000000     0.728100000000     0          
Zn1      Zn     0.792036000000     0.643294000000     0.742012000000     0          
Zn1      Zn     0.852584000000     0.692969000000     0.712943000000     0          
Zn1      Zn     0.634839000000     0.295760000000     0.228100000000     0          
Zn1      Zn     0.356706000000     0.148742000000     0.742012000000     0          
Zn1      Zn     0.307031000000     0.159616000000     0.712943000000     0          
Zn1      Zn     0.704241000000     0.339081000000     0.228100000000     0          
Zn1      Zn     0.851257000000     0.207962000000     0.742012000000     0          
Zn1      Zn     0.840383000000     0.147415000000     0.712943000000     0          
Zn1      Zn     0.660920000000     0.365159000000     0.228100000000     0          
Zn1      Zn     0.356705000000     0.207962000000     0.757988000000     0          
Zn1      Zn     0.307032000000     0.147415000000     0.787057000000     0          
Zn1      Zn     0.851257000000     0.643294000000     0.757988000000     0          
Zn1      Zn     0.840385000000     0.692969000000     0.787057000000     0          
Zn1      Zn     0.792037000000     0.148742000000     0.757988000000     0          
Zn1      Zn     0.852585000000     0.159616000000     0.787057000000     0          
Zn1      Zn     0.333333000000     0.666666000000     0.790150000000     0          
Zn1      Zn     0.666667000000     0.333334000000     0.290150000000     0          
O2       O      0.176541000000     0.324420000000     0.321460000000     0          
O2       O      0.218320000000     0.356989000000     0.302949000000     0          
O2       O      0.347569000000     0.233879000000     0.731789000000     0          
O2       O      0.314430000000     0.198380000000     0.700009000000     0          
O2       O      0.305299000000     0.607200000000     0.704601000000     0          
O2       O      0.352899000000     0.624760000000     0.709800000000     0          
O2       O      0.220390000000     0.398621000000     0.248410000000     0          
O2       O      0.128270000000     0.265871000000     0.275600000000     0          
O2       O      0.675579000000     0.852119000000     0.321460000000     0          
O2       O      0.643010000000     0.861331000000     0.302949000000     0          
O2       O      0.766120000000     0.113690000000     0.731789000000     0          
O2       O      0.801620000000     0.116049000000     0.700009000000     0          
O2       O      0.392801000000     0.698101000000     0.704601000000     0          
O2       O      0.375240000000     0.728139000000     0.709800000000     0          
O2       O      0.601380000000     0.821770000000     0.248410000000     0          
O2       O      0.734130000000     0.862401000000     0.275600000000     0          
O2       O      0.147880000000     0.823459000000     0.321460000000     0          
O2       O      0.138669000000     0.781679000000     0.302949000000     0          
O2       O      0.886311000000     0.652430000000     0.731789000000     0          
O2       O      0.883951000000     0.685571000000     0.700009000000     0          
O2       O      0.301900000000     0.694700000000     0.704601000000     0          
O2       O      0.271860000000     0.647100000000     0.709800000000     0          
O2       O      0.178229000000     0.779610000000     0.248410000000     0          
O2       O      0.137601000000     0.871730000000     0.275600000000     0          
O2       O      0.675580000000     0.823459000000     0.178540000000     0          
O2       O      0.643010000000     0.781679000000     0.197051000000     0          
O2       O      0.766119000000     0.652430000000     0.768211000000     0          
O2       O      0.801620000000     0.685571000000     0.799991000000     0          
O2       O      0.371460000000     0.668990000000     0.809079000000     0          
O2       O      0.388450000000     0.660900000000     0.766549000000     0          
O2       O      0.601381000000     0.779610000000     0.251590000000     0          
O2       O      0.734129000000     0.871730000000     0.224400000000     0          
O2       O      0.147880000000     0.324420000000     0.178540000000     0          
O2       O      0.138669000000     0.356989000000     0.197051000000     0          
O2       O      0.886310000000     0.233879000000     0.768211000000     0          
O2       O      0.883950000000     0.198380000000     0.799991000000     0          
O2       O      0.297531000000     0.628540000000     0.809079000000     0          
O2       O      0.272451000000     0.611550000000     0.766549000000     0          
O2       O      0.178231000000     0.398621000000     0.251590000000     0          
O2       O      0.137601000000     0.265871000000     0.224400000000     0          
O2       O      0.176540000000     0.852119000000     0.178540000000     0          
O2       O      0.218321000000     0.861331000000     0.197051000000     0          
O2       O      0.347570000000     0.113690000000     0.768211000000     0          
O2       O      0.314430000000     0.116049000000     0.799991000000     0          
O2       O      0.331010000000     0.702469000000     0.809079000000     0          
O2       O      0.339101000000     0.727551000000     0.766549000000     0          
O2       O      0.220391000000     0.821770000000     0.251590000000     0          
O2       O      0.128271000000     0.862401000000     0.224400000000     0          
O2       O      0.823460000000     0.675580000000     0.678540000000     0          
O2       O      0.781679000000     0.643009000000     0.697051000000     0          
O2       O      0.652430000000     0.766119000000     0.268211000000     0          
O2       O      0.685570000000     0.801620000000     0.299991000000     0          
O2       O      0.668991000000     0.371461000000     0.309079000000     0          
O2       O      0.660901000000     0.388450000000     0.266549000000     0          
O2       O      0.779610000000     0.601380000000     0.751590000000     0          
O2       O      0.871730000000     0.734130000000     0.724400000000     0          
O2       O      0.324420000000     0.147879000000     0.678540000000     0          
O2       O      0.356990000000     0.138670000000     0.697051000000     0          
O2       O      0.233880000000     0.886311000000     0.268211000000     0          
O2       O      0.198379000000     0.883949000000     0.299991000000     0          
O2       O      0.628541000000     0.297529000000     0.309079000000     0          
O2       O      0.611551000000     0.272450000000     0.266549000000     0          
O2       O      0.398621000000     0.178230000000     0.751590000000     0          
O2       O      0.265870000000     0.137600000000     0.724400000000     0          
O2       O      0.852119000000     0.176539000000     0.678540000000     0          
O2       O      0.861330000000     0.218319000000     0.697051000000     0          
O2       O      0.113690000000     0.347571000000     0.268211000000     0          
O2       O      0.116050000000     0.314430000000     0.299991000000     0          
O2       O      0.702470000000     0.331010000000     0.309079000000     0          
O2       O      0.727551000000     0.339101000000     0.266549000000     0          
O2       O      0.821771000000     0.220390000000     0.751590000000     0          
O2       O      0.862400000000     0.128271000000     0.724400000000     0          
O2       O      0.324420000000     0.176539000000     0.821460000000     0          
O2       O      0.356989000000     0.218319000000     0.802949000000     0          
O2       O      0.233881000000     0.347571000000     0.231789000000     0          
O2       O      0.198380000000     0.314430000000     0.200009000000     0          
O2       O      0.607200000000     0.305300000000     0.204601000000     0          
O2       O      0.624761000000     0.352900000000     0.209800000000     0          
O2       O      0.398619000000     0.220390000000     0.748410000000     0          
O2       O      0.265871000000     0.128271000000     0.775600000000     0          
O2       O      0.852121000000     0.675580000000     0.821460000000     0          
O2       O      0.861330000000     0.643009000000     0.802949000000     0          
O2       O      0.113689000000     0.766119000000     0.231789000000     0          
O2       O      0.116050000000     0.801620000000     0.200009000000     0          
O2       O      0.698100000000     0.392801000000     0.204601000000     0          
O2       O      0.728140000000     0.375241000000     0.209800000000     0          
O2       O      0.821770000000     0.601380000000     0.748410000000     0          
O2       O      0.862400000000     0.734130000000     0.775600000000     0          
O2       O      0.823459000000     0.147879000000     0.821460000000     0          
O2       O      0.781680000000     0.138670000000     0.802949000000     0          
O2       O      0.652430000000     0.886311000000     0.231789000000     0          
O2       O      0.685570000000     0.883949000000     0.200009000000     0          
O2       O      0.694701000000     0.301900000000     0.204601000000     0          
O2       O      0.647100000000     0.271859000000     0.209800000000     0          
O2       O      0.779610000000     0.178230000000     0.748410000000     0          
O2       O      0.871729000000     0.137600000000     0.775600000000     0          
C10      C      0.284311000000     0.391020000000     0.547079000000     0          
C10      C      0.299789000000     0.376879000000     0.594421000000     0          
C10      C      0.298830000000     0.422650000000     0.592901000000     0          
C10      C      0.608980000000     0.893289000000     0.547079000000     0          
C10      C      0.623119000000     0.922910000000     0.594421000000     0          
C10      C      0.577350000000     0.876180000000     0.592901000000     0          
C10      C      0.106710000000     0.715689000000     0.547079000000     0          
C10      C      0.077089500000     0.700210000000     0.594421000000     0          
C10      C      0.123820000000     0.701171000000     0.592901000000     0          
C10      C      0.608979000000     0.715689000000     0.952921000000     0          
C10      C      0.623120000000     0.700210000000     0.905579000000     0          
C10      C      0.577351000000     0.701171000000     0.907099000000     0          
C10      C      0.106709000000     0.391020000000     0.952921000000     0          
C10      C      0.077090500000     0.376879000000     0.905579000000     0          
C10      C      0.123820000000     0.422650000000     0.907099000000     0          
C10      C      0.284309000000     0.893289000000     0.952921000000     0          
C10      C      0.299791000000     0.922910000000     0.905579000000     0          
C10      C      0.298830000000     0.876180000000     0.907099000000     0          
C10      C      0.715689000000     0.608980000000     0.452921000000     0          
C10      C      0.700209000000     0.623119000000     0.405579000000     0          
C10      C      0.701170000000     0.577350000000     0.407099000000     0          
C10      C      0.391019000000     0.106709000000     0.452921000000     0          
C10      C      0.376881000000     0.077090300000     0.405579000000     0          
C10      C      0.422650000000     0.123820000000     0.407099000000     0          
C10      C      0.893289000000     0.284309000000     0.452921000000     0          
C10      C      0.922911000000     0.299791000000     0.405579000000     0          
C10      C      0.876181000000     0.298830000000     0.407099000000     0          
C10      C      0.391020000000     0.284309000000     0.047079100000     0          
C10      C      0.376880000000     0.299791000000     0.094420600000     0          
C10      C      0.422649000000     0.298830000000     0.092901000000     0          
C10      C      0.893291000000     0.608980000000     0.047079100000     0          
C10      C      0.922909000000     0.623119000000     0.094420600000     0          
C10      C      0.876180000000     0.577350000000     0.092901000000     0          
C10      C      0.715690000000     0.106709000000     0.047079100000     0          
C10      C      0.700209000000     0.077090300000     0.094420600000     0          
C10      C      0.701170000000     0.123820000000     0.092901000000     0          
C10      C      0.318290000000     0.636579000000     0.250000000000     0          
C10      C      0.014964800000     0.029929600000     0.250000000000     0          
C10      C      0.363421000000     0.681711000000     0.250000000000     0          
C10      C      0.970070000000     0.985036000000     0.250000000000     0          
C10      C      0.318290000000     0.681711000000     0.250000000000     0          
C10      C      0.014966100000     0.985036000000     0.250000000000     0          
C10      C      0.681710000000     0.363419000000     0.750000000000     0          
C10      C      0.985035000000     0.970071000000     0.750000000000     0          
C10      C      0.636579000000     0.318290000000     0.750000000000     0          
C10      C      0.029930600000     0.014964800000     0.750000000000     0          
C10      C      0.681710000000     0.318290000000     0.750000000000     0          
C10      C      0.985034000000     0.014964800000     0.750000000000     0          
C11      C      0.289791000000     0.371050000000     0.563371000000     0          
C11      C      0.304310000000     0.402680000000     0.609190000000     0          
C11      C      0.288829000000     0.416819000000     0.561849000000     0          
C11      C      0.628950000000     0.918740000000     0.563371000000     0          
C11      C      0.597321000000     0.901631000000     0.609190000000     0          
C11      C      0.583179000000     0.872010000000     0.561849000000     0          
C11      C      0.081258800000     0.710209000000     0.563371000000     0          
C11      C      0.098369900000     0.695690000000     0.609190000000     0          
C11      C      0.127991000000     0.711170000000     0.561849000000     0          
C11      C      0.628950000000     0.710209000000     0.936629000000     0          
C11      C      0.597320000000     0.695690000000     0.890810000000     0          
C11      C      0.583179000000     0.711170000000     0.938151000000     0          
C11      C      0.081259700000     0.371050000000     0.936629000000     0          
C11      C      0.098370200000     0.402680000000     0.890810000000     0          
C11      C      0.127990000000     0.416819000000     0.938151000000     0          
C11      C      0.289790000000     0.918740000000     0.936629000000     0          
C11      C      0.304310000000     0.901631000000     0.890810000000     0          
C11      C      0.288831000000     0.872010000000     0.938151000000     0          
C11      C      0.710210000000     0.628950000000     0.436629000000     0          
C11      C      0.695690000000     0.597320000000     0.390810000000     0          
C11      C      0.711170000000     0.583179000000     0.438151000000     0          
C11      C      0.371050000000     0.081261000000     0.436629000000     0          
C11      C      0.402680000000     0.098370000000     0.390810000000     0          
C11      C      0.416821000000     0.127991000000     0.438151000000     0          
C11      C      0.918740000000     0.289789000000     0.436629000000     0          
C11      C      0.901630000000     0.304310000000     0.390810000000     0          
C11      C      0.872009000000     0.288831000000     0.438151000000     0          
C11      C      0.371049000000     0.289789000000     0.063370800000     0          
C11      C      0.402680000000     0.304310000000     0.109190000000     0          
C11      C      0.416821000000     0.288831000000     0.061848900000     0          
C11      C      0.918741000000     0.628950000000     0.063370800000     0          
C11      C      0.901630000000     0.597320000000     0.109190000000     0          
C11      C      0.872009000000     0.583179000000     0.061848900000     0          
C11      C      0.710211000000     0.081261000000     0.063370800000     0          
C11      C      0.695690000000     0.098370000000     0.109190000000     0          
C11      C      0.711170000000     0.127991000000     0.061848900000     0          
C11      C      0.348371000000     0.651630000000     0.250000000000     0          
C11      C      0.348370000000     0.696740000000     0.250000000000     0          
C11      C      0.303259000000     0.651630000000     0.250000000000     0          
C11      C      0.651629000000     0.348370000000     0.750000000000     0          
C11      C      0.651630000000     0.303260000000     0.750000000000     0          
C11      C      0.696741000000     0.348370000000     0.750000000000     0          
C11      C      0.030159400000     0.015080200000     0.250000000000     0          
C11      C      0.984921000000     0.015080200000     0.250000000000     0          
C11      C      0.984920000000     0.969840000000     0.250000000000     0          
C11      C      0.969841000000     0.984920000000     0.750000000000     0          
C11      C      0.015079500000     0.984920000000     0.750000000000     0          
C11      C      0.015080200000     0.030160500000     0.750000000000     0          
H4       H      0.286799000000     0.353799000000     0.553500000000     0          
H4       H      0.311001000000     0.406600000000     0.630000000000     0          
H4       H      0.285199000000     0.430199000000     0.550900000000     0          
H4       H      0.247400000000     0.339001000000     0.518499000000     0          
H4       H      0.291899000000     0.426100000000     0.498301000000     0          
H4       H      0.282700000000     0.323000000000     0.581900000000     0          
H4       H      0.330601000000     0.382901000000     0.648700000000     0          
H4       H      0.341601000000     0.459701000000     0.633401000000     0          
H4       H      0.270601000000     0.453501000000     0.588699000000     0          
H4       H      0.336499000000     0.598000000000     0.246900000000     0          
H4       H      0.999799000000     0.068999700000     0.267901000000     0          
H4       H      0.646201000000     0.933001000000     0.553500000000     0          
H4       H      0.593400000000     0.904401000000     0.630000000000     0          
H4       H      0.569800000000     0.855000000000     0.550900000000     0          
H4       H      0.661001000000     0.908401000000     0.518499000000     0          
H4       H      0.573899000000     0.865799000000     0.498301000000     0          
H4       H      0.677000000000     0.959701000000     0.581900000000     0          
H4       H      0.617101000000     0.947699000000     0.648700000000     0          
H4       H      0.540300000000     0.881900000000     0.633401000000     0          
H4       H      0.546499000000     0.817100000000     0.588699000000     0          
H4       H      0.402000000000     0.738500000000     0.246900000000     0          
H4       H      0.930999000000     0.930799000000     0.267901000000     0          
H4       H      0.067000000000     0.713201000000     0.553500000000     0          
H4       H      0.095599700000     0.689000000000     0.630000000000     0          
H4       H      0.144999000000     0.714799000000     0.550900000000     0          
H4       H      0.091599100000     0.752600000000     0.518499000000     0          
H4       H      0.134201000000     0.708100000000     0.498301000000     0          
H4       H      0.040300400000     0.717301000000     0.581900000000     0          
H4       H      0.052300700000     0.669401000000     0.648700000000     0          
H4       H      0.118101000000     0.658400000000     0.633401000000     0          
H4       H      0.182900000000     0.729400000000     0.588699000000     0          
H4       H      0.261501000000     0.663501000000     0.246900000000     0          
H4       H      0.069199500000     0.000199800000     0.267901000000     0          
H4       H      0.646201000000     0.713201000000     0.946500000000     0          
H4       H      0.593401000000     0.689000000000     0.870000000000     0          
H4       H      0.569800000000     0.714799000000     0.949100000000     0          
H4       H      0.661001000000     0.752600000000     0.981501000000     0          
H4       H      0.573899000000     0.708100000000     0.001699120000     0          
H4       H      0.677000000000     0.717301000000     0.918100000000     0          
H4       H      0.617100000000     0.669401000000     0.851300000000     0          
H4       H      0.540299000000     0.658400000000     0.866599000000     0          
H4       H      0.546500000000     0.729400000000     0.911301000000     0          
H4       H      0.402000000000     0.663501000000     0.253100000000     0          
H4       H      0.931000000000     0.000199800000     0.232099000000     0          
H4       H      0.067000000000     0.353799000000     0.946500000000     0          
H4       H      0.095599500000     0.406600000000     0.870000000000     0          
H4       H      0.145000000000     0.430199000000     0.949100000000     0          
H4       H      0.091600800000     0.339001000000     0.981501000000     0          
H4       H      0.134200000000     0.426100000000     0.001699120000     0          
H4       H      0.040299200000     0.323000000000     0.918100000000     0          
H4       H      0.052299800000     0.382901000000     0.851300000000     0          
H4       H      0.118099000000     0.459701000000     0.866599000000     0          
H4       H      0.182900000000     0.453501000000     0.911301000000     0          
H4       H      0.261500000000     0.598000000000     0.253100000000     0          
H4       H      0.069200600000     0.068999700000     0.232099000000     0          
H4       H      0.286799000000     0.933001000000     0.946500000000     0          
H4       H      0.311000000000     0.904401000000     0.870000000000     0          
H4       H      0.285201000000     0.855000000000     0.949100000000     0          
H4       H      0.247399000000     0.908401000000     0.981501000000     0          
H4       H      0.291900000000     0.865799000000     0.001699100000     0          
H4       H      0.282701000000     0.959701000000     0.918100000000     0          
H4       H      0.330599000000     0.947699000000     0.851300000000     0          
H4       H      0.341600000000     0.881900000000     0.866599000000     0          
H4       H      0.270601000000     0.817100000000     0.911301000000     0          
H4       H      0.336501000000     0.738500000000     0.253100000000     0          
H4       H      0.999800000000     0.930799000000     0.232099000000     0          
H4       H      0.713200000000     0.646199000000     0.446500000000     0          
H4       H      0.689000000000     0.593400000000     0.370000000000     0          
H4       H      0.714800000000     0.569799000000     0.449100000000     0          
H4       H      0.752600000000     0.661000000000     0.481501000000     0          
H4       H      0.708101000000     0.573901000000     0.501699000000     0          
H4       H      0.717300000000     0.677001000000     0.418100000000     0          
H4       H      0.669399000000     0.617100000000     0.351300000000     0          
H4       H      0.658399000000     0.540300000000     0.366599000000     0          
H4       H      0.729399000000     0.546500000000     0.411301000000     0          
H4       H      0.663501000000     0.402001000000     0.753100000000     0          
H4       H      0.000201200000     0.931001000000     0.732099000000     0          
H4       H      0.353799000000     0.066999800000     0.446500000000     0          
H4       H      0.406600000000     0.095599800000     0.370000000000     0          
H4       H      0.430201000000     0.145000000000     0.449100000000     0          
H4       H      0.338999000000     0.091600100000     0.481501000000     0          
H4       H      0.426100000000     0.134199000000     0.501699000000     0          
H4       H      0.323001000000     0.040299800000     0.418100000000     0          
H4       H      0.382899000000     0.052299100000     0.351300000000     0          
H4       H      0.459700000000     0.118100000000     0.366599000000     0          
H4       H      0.453501000000     0.182900000000     0.411301000000     0          
H4       H      0.598000000000     0.261500000000     0.753100000000     0          
H4       H      0.069000600000     0.069199500000     0.732099000000     0          
H4       H      0.933000000000     0.286800000000     0.446500000000     0          
H4       H      0.904401000000     0.311000000000     0.370000000000     0          
H4       H      0.855000000000     0.285199000000     0.449100000000     0          
H4       H      0.908401000000     0.247401000000     0.481501000000     0          
H4       H      0.865799000000     0.291900000000     0.501699000000     0          
H4       H      0.959700000000     0.282700000000     0.418100000000     0          
H4       H      0.947700000000     0.330600000000     0.351300000000     0          
H4       H      0.881899000000     0.341600000000     0.366599000000     0          
H4       H      0.817100000000     0.270601000000     0.411301000000     0          
H4       H      0.738499000000     0.336499000000     0.753100000000     0          
H4       H      0.930801000000     0.999801000000     0.732099000000     0          
H4       H      0.353799000000     0.286800000000     0.053499900000     0          
H4       H      0.406600000000     0.311000000000     0.130000000000     0          
H4       H      0.430199000000     0.285199000000     0.050900400000     0          
H4       H      0.339000000000     0.247401000000     0.018498900000     0          
H4       H      0.426101000000     0.291900000000     0.998301000000     0          
H4       H      0.323000000000     0.282700000000     0.081900500000     0          
H4       H      0.382900000000     0.330600000000     0.148700000000     0          
H4       H      0.459701000000     0.341600000000     0.133401000000     0          
H4       H      0.453500000000     0.270601000000     0.088699300000     0          
H4       H      0.598001000000     0.336499000000     0.746900000000     0          
H4       H      0.069000000000     0.999801000000     0.767901000000     0          
H4       H      0.932999000000     0.646199000000     0.053499900000     0          
H4       H      0.904401000000     0.593400000000     0.130000000000     0          
H4       H      0.854999000000     0.569799000000     0.050900400000     0          
H4       H      0.908400000000     0.661000000000     0.018498900000     0          
H4       H      0.865800000000     0.573901000000     0.998301000000     0          
H4       H      0.959701000000     0.677001000000     0.081900500000     0          
H4       H      0.947701000000     0.617100000000     0.148700000000     0          
H4       H      0.881901000000     0.540300000000     0.133401000000     0          
H4       H      0.817100000000     0.546500000000     0.088699300000     0          
H4       H      0.738500000000     0.402001000000     0.746900000000     0          
H4       H      0.930800000000     0.931001000000     0.767901000000     0          
H4       H      0.713201000000     0.066999800000     0.053499900000     0          
H4       H      0.689000000000     0.095599800000     0.130000000000     0          
H4       H      0.714799000000     0.145000000000     0.050900400000     0          
H4       H      0.752599000000     0.091600100000     0.018498900000     0          
H4       H      0.708100000000     0.134199000000     0.998301000000     0          
H4       H      0.717299000000     0.040299800000     0.081900500000     0          
H4       H      0.669400000000     0.052299100000     0.148700000000     0          
H4       H      0.658400000000     0.118100000000     0.133401000000     0          
H4       H      0.729400000000     0.182900000000     0.088699300000     0          
H4       H      0.663500000000     0.261500000000     0.746900000000     0          
H4       H      0.000198900000     0.069199500000     0.767901000000     0          
H4       H      0.358699000000     0.641300000000     0.250000000000     0          
H4       H      0.358700000000     0.717401000000     0.250000000000     0          
H4       H      0.282601000000     0.641300000000     0.250000000000     0          
H4       H      0.641301000000     0.358700000000     0.750000000000     0          
H4       H      0.641300000000     0.282600000000     0.750000000000     0          
H4       H      0.717399000000     0.358700000000     0.750000000000     0          
H4       H      0.050798900000     0.025399300000     0.250000000000     0          
H4       H      0.974600000000     0.025399300000     0.250000000000     0          
H4       H      0.974600000000     0.949200000000     0.250000000000     0          
H4       H      0.949200000000     0.974599000000     0.750000000000     0          
H4       H      0.025398800000     0.974599000000     0.750000000000     0          
H4       H      0.025400400000     0.050800900000     0.750000000000     0          
C6       C      0.249569000000     0.371219000000     0.452089000000     0          
C6       C      0.313240000000     0.313719000000     0.644489000000     0          
C6       C      0.314601000000     0.503900000000     0.638399000000     0          
C6       C      0.628780000000     0.878351000000     0.452089000000     0          
C6       C      0.686279000000     0.999519000000     0.644489000000     0          
C6       C      0.496101000000     0.810701000000     0.638399000000     0          
C6       C      0.121650000000     0.750431000000     0.452089000000     0          
C6       C      0.000481200000     0.686761000000     0.644489000000     0          
C6       C      0.189300000000     0.685400000000     0.638399000000     0          
C6       C      0.628781000000     0.750431000000     0.047911000000     0          
C6       C      0.686280000000     0.686761000000     0.855511000000     0          
C6       C      0.496101000000     0.685400000000     0.861601000000     0          
C6       C      0.121650000000     0.371219000000     0.047911000000     0          
C6       C      0.000479700000     0.313719000000     0.855511000000     0          
C6       C      0.189300000000     0.503900000000     0.861601000000     0          
C6       C      0.249571000000     0.878351000000     0.047911000000     0          
C6       C      0.313240000000     0.999519000000     0.855511000000     0          
C6       C      0.314600000000     0.810701000000     0.861601000000     0          
C6       C      0.750430000000     0.628779000000     0.547911000000     0          
C6       C      0.686760000000     0.686279000000     0.355511000000     0          
C6       C      0.685400000000     0.496100000000     0.361601000000     0          
C6       C      0.371220000000     0.121650000000     0.547911000000     0          
C6       C      0.313721000000     0.000479400000     0.355511000000     0          
C6       C      0.503900000000     0.189300000000     0.361601000000     0          
C6       C      0.878351000000     0.249570000000     0.547911000000     0          
C6       C      0.999519000000     0.313240000000     0.355511000000     0          
C6       C      0.810701000000     0.314601000000     0.361601000000     0          
C6       C      0.371219000000     0.249570000000     0.952089000000     0          
C6       C      0.313721000000     0.313240000000     0.144489000000     0          
C6       C      0.503900000000     0.314601000000     0.138399000000     0          
C6       C      0.878349000000     0.628779000000     0.952089000000     0          
C6       C      0.999520000000     0.686279000000     0.144489000000     0          
C6       C      0.810701000000     0.496100000000     0.138399000000     0          
C6       C      0.750429000000     0.121650000000     0.952089000000     0          
C6       C      0.686759000000     0.000479400000     0.144489000000     0          
C6       C      0.685400000000     0.189300000000     0.138399000000     0          
C6       C      0.270950000000     0.541900000000     0.250000000000     0          
C6       C      0.062499500000     0.124999000000     0.250000000000     0          
C6       C      0.458100000000     0.729049000000     0.250000000000     0          
C6       C      0.874999000000     0.937500000000     0.250000000000     0          
C6       C      0.270949000000     0.729049000000     0.250000000000     0          
C6       C      0.062500700000     0.937500000000     0.250000000000     0          
C6       C      0.729050000000     0.458100000000     0.750000000000     0          
C6       C      0.937500000000     0.874999000000     0.750000000000     0          
C6       C      0.541899000000     0.270949000000     0.750000000000     0          
C6       C      0.125001000000     0.062500600000     0.750000000000     0          
C6       C      0.729050000000     0.270949000000     0.750000000000     0          
C6       C      0.937500000000     0.062500600000     0.750000000000     0          
C7       C      0.241700000000     0.348199000000     0.473511000000     0          
C7       C      0.268370000000     0.400410000000     0.461381000000     0          
C7       C      0.297091000000     0.306461000000     0.616521000000     0          
C7       C      0.325800000000     0.342350000000     0.656539000000     0          
C7       C      0.333600000000     0.492900000000     0.644300000000     0          
C7       C      0.290999000000     0.489100000000     0.617499000000     0          
C7       C      0.300491000000     0.557500000000     0.245000000000     0          
C7       C      0.033439400000     0.109499000000     0.257900000000     0          
C7       C      0.651800000000     0.893500000000     0.473511000000     0          
C7       C      0.599591000000     0.867961000000     0.461381000000     0          
C7       C      0.693540000000     0.990629000000     0.616521000000     0          
C7       C      0.657651000000     0.983451000000     0.656539000000     0          
C7       C      0.507099000000     0.840699000000     0.644300000000     0          
C7       C      0.510900000000     0.801900000000     0.617499000000     0          
C7       C      0.442500000000     0.742991000000     0.245000000000     0          
C7       C      0.890500000000     0.923940000000     0.257900000000     0          
C7       C      0.106500000000     0.758300000000     0.473511000000     0          
C7       C      0.132041000000     0.731631000000     0.461381000000     0          
C7       C      0.009371300000     0.702911000000     0.616521000000     0          
C7       C      0.016549000000     0.674200000000     0.656539000000     0          
C7       C      0.159300000000     0.666400000000     0.644300000000     0          
C7       C      0.198100000000     0.708999000000     0.617499000000     0          
C7       C      0.257010000000     0.699510000000     0.245000000000     0          
C7       C      0.076059700000     0.966560000000     0.257900000000     0          
C7       C      0.651800000000     0.758300000000     0.026491200000     0          
C7       C      0.599590000000     0.731631000000     0.038619000000     0          
C7       C      0.693540000000     0.702911000000     0.883479000000     0          
C7       C      0.657651000000     0.674200000000     0.843461000000     0          
C7       C      0.507099000000     0.666400000000     0.855700000000     0          
C7       C      0.510899000000     0.708999000000     0.882501000000     0          
C7       C      0.442501000000     0.699510000000     0.255000000000     0          
C7       C      0.890500000000     0.966560000000     0.242100000000     0          
C7       C      0.106499000000     0.348199000000     0.026491200000     0          
C7       C      0.132039000000     0.400410000000     0.038619000000     0          
C7       C      0.009370300000     0.306461000000     0.883479000000     0          
C7       C      0.016550300000     0.342350000000     0.843461000000     0          
C7       C      0.159300000000     0.492900000000     0.855700000000     0          
C7       C      0.198100000000     0.489100000000     0.882501000000     0          
C7       C      0.257009000000     0.557500000000     0.255000000000     0          
C7       C      0.076059800000     0.109499000000     0.242100000000     0          
C7       C      0.241700000000     0.893500000000     0.026491200000     0          
C7       C      0.268370000000     0.867961000000     0.038619000000     0          
C7       C      0.297089000000     0.990629000000     0.883479000000     0          
C7       C      0.325800000000     0.983451000000     0.843461000000     0          
C7       C      0.333600000000     0.840699000000     0.855700000000     0          
C7       C      0.291000000000     0.801900000000     0.882501000000     0          
C7       C      0.300491000000     0.742991000000     0.255000000000     0          
C7       C      0.033439900000     0.923940000000     0.242100000000     0          
C7       C      0.758299000000     0.651799000000     0.526491000000     0          
C7       C      0.731630000000     0.599591000000     0.538619000000     0          
C7       C      0.702909000000     0.693539000000     0.383479000000     0          
C7       C      0.674200000000     0.657650000000     0.343461000000     0          
C7       C      0.666401000000     0.507101000000     0.355700000000     0          
C7       C      0.709001000000     0.510901000000     0.382501000000     0          
C7       C      0.699509000000     0.442501000000     0.755000000000     0          
C7       C      0.966560000000     0.890499000000     0.742100000000     0          
C7       C      0.348200000000     0.106500000000     0.526491000000     0          
C7       C      0.400409000000     0.132040000000     0.538619000000     0          
C7       C      0.306459000000     0.009369100000     0.383479000000     0          
C7       C      0.342349000000     0.016549600000     0.343461000000     0          
C7       C      0.492900000000     0.159299000000     0.355700000000     0          
C7       C      0.489101000000     0.198101000000     0.382501000000     0          
C7       C      0.557500000000     0.257010000000     0.755000000000     0          
C7       C      0.109500000000     0.076060400000     0.742100000000     0          
C7       C      0.893500000000     0.241701000000     0.526491000000     0          
C7       C      0.867959000000     0.268370000000     0.538619000000     0          
C7       C      0.990629000000     0.297090000000     0.383479000000     0          
C7       C      0.983451000000     0.325801000000     0.343461000000     0          
C7       C      0.840700000000     0.333601000000     0.355700000000     0          
C7       C      0.801899000000     0.290999000000     0.382501000000     0          
C7       C      0.742991000000     0.300490000000     0.755000000000     0          
C7       C      0.923941000000     0.033441100000     0.742100000000     0          
C7       C      0.348200000000     0.241701000000     0.973509000000     0          
C7       C      0.400411000000     0.268370000000     0.961381000000     0          
C7       C      0.306461000000     0.297090000000     0.116521000000     0          
C7       C      0.342349000000     0.325801000000     0.156539000000     0          
C7       C      0.492901000000     0.333601000000     0.144300000000     0          
C7       C      0.489100000000     0.290999000000     0.117499000000     0          
C7       C      0.557500000000     0.300490000000     0.745000000000     0          
C7       C      0.109501000000     0.033441100000     0.757900000000     0          
C7       C      0.893500000000     0.651799000000     0.973509000000     0          
C7       C      0.867961000000     0.599591000000     0.961381000000     0          
C7       C      0.990630000000     0.693539000000     0.116521000000     0          
C7       C      0.983450000000     0.657650000000     0.156539000000     0          
C7       C      0.840700000000     0.507101000000     0.144300000000     0          
C7       C      0.801900000000     0.510901000000     0.117499000000     0          
C7       C      0.742991000000     0.442501000000     0.745000000000     0          
C7       C      0.923939000000     0.890499000000     0.757900000000     0          
C7       C      0.758300000000     0.106500000000     0.973509000000     0          
C7       C      0.731631000000     0.132040000000     0.961381000000     0          
C7       C      0.702910000000     0.009369100000     0.116521000000     0          
C7       C      0.674199000000     0.016549600000     0.156539000000     0          
C7       C      0.666399000000     0.159299000000     0.144300000000     0          
C7       C      0.709000000000     0.198101000000     0.117499000000     0          
C7       C      0.699509000000     0.257010000000     0.745000000000     0          
C7       C      0.966560000000     0.076060400000     0.757900000000     0          
H3       H      0.229099000000     0.328700000000     0.467301000000     0          
H3       H      0.273599000000     0.415801000000     0.447100000000     0          
H3       H      0.288700000000     0.287299000000     0.608500000000     0          
H3       H      0.336600000000     0.347200000000     0.675300000000     0          
H3       H      0.349400000000     0.502799000000     0.658200000000     0          
H3       H      0.278301000000     0.496500000000     0.613501000000     0          
H3       H      0.310600000000     0.547600000000     0.239900000000     0          
H3       H      0.023200500000     0.119501000000     0.262000000000     0          
H3       H      0.671301000000     0.900401000000     0.467301000000     0          
H3       H      0.584199000000     0.857799000000     0.447100000000     0          
H3       H      0.712701000000     0.001400600000     0.608500000000     0          
H3       H      0.652800000000     0.989400000000     0.675300000000     0          
H3       H      0.497199000000     0.846599000000     0.658200000000     0          
H3       H      0.503500000000     0.781799000000     0.613501000000     0          
H3       H      0.452401000000     0.763001000000     0.239900000000     0          
H3       H      0.880499000000     0.903699000000     0.262000000000     0          
H3       H      0.099600100000     0.770901000000     0.467301000000     0          
H3       H      0.142199000000     0.726399000000     0.447100000000     0          
H3       H      0.998600000000     0.711301000000     0.608500000000     0          
H3       H      0.010598800000     0.663399000000     0.675300000000     0          
H3       H      0.153400000000     0.650601000000     0.658200000000     0          
H3       H      0.218201000000     0.721700000000     0.613501000000     0          
H3       H      0.236999000000     0.689400000000     0.239900000000     0          
H3       H      0.096301000000     0.976801000000     0.262000000000     0          
H3       H      0.671300000000     0.770901000000     0.032699200000     0          
H3       H      0.584200000000     0.726399000000     0.052899600000     0          
H3       H      0.712701000000     0.711301000000     0.891500000000     0          
H3       H      0.652800000000     0.663399000000     0.824700000000     0          
H3       H      0.497201000000     0.650601000000     0.841800000000     0          
H3       H      0.503499000000     0.721700000000     0.886499000000     0          
H3       H      0.452401000000     0.689400000000     0.260100000000     0          
H3       H      0.880500000000     0.976801000000     0.238000000000     0          
H3       H      0.099600300000     0.328700000000     0.032699200000     0          
H3       H      0.142201000000     0.415801000000     0.052899600000     0          
H3       H      0.998599000000     0.287299000000     0.891500000000     0          
H3       H      0.010599900000     0.347200000000     0.824700000000     0          
H3       H      0.153399000000     0.502799000000     0.841800000000     0          
H3       H      0.218199000000     0.496500000000     0.886499000000     0          
H3       H      0.237000000000     0.547600000000     0.260100000000     0          
H3       H      0.096300400000     0.119501000000     0.238000000000     0          
H3       H      0.229100000000     0.900401000000     0.032699200000     0          
H3       H      0.273600000000     0.857799000000     0.052899600000     0          
H3       H      0.288700000000     0.001400600000     0.891500000000     0          
H3       H      0.336599000000     0.989400000000     0.824700000000     0          
H3       H      0.349400000000     0.846599000000     0.841800000000     0          
H3       H      0.278299000000     0.781799000000     0.886499000000     0          
H3       H      0.310600000000     0.763001000000     0.260100000000     0          
H3       H      0.023200200000     0.903699000000     0.238000000000     0          
H3       H      0.770901000000     0.671301000000     0.532699000000     0          
H3       H      0.726401000000     0.584200000000     0.552900000000     0          
H3       H      0.711300000000     0.712699000000     0.391500000000     0          
H3       H      0.663400000000     0.652800000000     0.324700000000     0          
H3       H      0.650599000000     0.497199000000     0.341800000000     0          
H3       H      0.721700000000     0.503501000000     0.386499000000     0          
H3       H      0.689400000000     0.452400000000     0.760100000000     0          
H3       H      0.976800000000     0.880500000000     0.738000000000     0          
H3       H      0.328699000000     0.099599600000     0.532699000000     0          
H3       H      0.415800000000     0.142199000000     0.552900000000     0          
H3       H      0.287299000000     0.998600000000     0.391500000000     0          
H3       H      0.347200000000     0.010601000000     0.324700000000     0          
H3       H      0.502800000000     0.153399000000     0.341800000000     0          
H3       H      0.496499000000     0.218199000000     0.386499000000     0          
H3       H      0.547599000000     0.237000000000     0.760100000000     0          
H3       H      0.119500000000     0.096299000000     0.738000000000     0          
H3       H      0.900400000000     0.229100000000     0.532699000000     0          
H3       H      0.857800000000     0.273599000000     0.552900000000     0          
H3       H      0.001400600000     0.288700000000     0.391500000000     0          
H3       H      0.989400000000     0.336599000000     0.324700000000     0          
H3       H      0.846600000000     0.349400000000     0.341800000000     0          
H3       H      0.781800000000     0.278301000000     0.386499000000     0          
H3       H      0.763001000000     0.310601000000     0.760100000000     0          
H3       H      0.903699000000     0.023199700000     0.738000000000     0          
H3       H      0.328700000000     0.229100000000     0.967301000000     0          
H3       H      0.415799000000     0.273599000000     0.947100000000     0          
H3       H      0.287299000000     0.288700000000     0.108500000000     0          
H3       H      0.347199000000     0.336599000000     0.175300000000     0          
H3       H      0.502800000000     0.349400000000     0.158200000000     0          
H3       H      0.496501000000     0.278301000000     0.113501000000     0          
H3       H      0.547600000000     0.310601000000     0.739900000000     0          
H3       H      0.119500000000     0.023199700000     0.762000000000     0          
H3       H      0.900400000000     0.671301000000     0.967301000000     0          
H3       H      0.857799000000     0.584200000000     0.947100000000     0          
H3       H      0.001399900000     0.712699000000     0.108500000000     0          
H3       H      0.989400000000     0.652800000000     0.175300000000     0          
H3       H      0.846600000000     0.497199000000     0.158200000000     0          
H3       H      0.781801000000     0.503501000000     0.113501000000     0          
H3       H      0.763000000000     0.452400000000     0.739900000000     0          
H3       H      0.903700000000     0.880500000000     0.762000000000     0          
H3       H      0.770901000000     0.099599600000     0.967301000000     0          
H3       H      0.726399000000     0.142199000000     0.947100000000     0          
H3       H      0.711301000000     0.998600000000     0.108500000000     0          
H3       H      0.663401000000     0.010601000000     0.175300000000     0          
H3       H      0.650599000000     0.153399000000     0.158200000000     0          
H3       H      0.721700000000     0.218199000000     0.113501000000     0          
H3       H      0.689401000000     0.237000000000     0.739900000000     0          
H3       H      0.976799000000     0.096299000000     0.762000000000     0          
C8       C      0.252630000000     0.354390000000     0.504199000000     0          
C8       C      0.279291000000     0.406580000000     0.492090000000     0          
C8       C      0.293490000000     0.327821000000     0.600600000000     0          
C8       C      0.322200000000     0.363719000000     0.640621000000     0          
C8       C      0.328900000000     0.467101000000     0.629400000000     0          
C8       C      0.286400000000     0.463301000000     0.602599000000     0          
C8       C      0.315910000000     0.587869000000     0.247299000000     0          
C8       C      0.018999600000     0.079400900000     0.259800000000     0          
C8       C      0.645609000000     0.898239000000     0.504199000000     0          
C8       C      0.593420000000     0.872711000000     0.492090000000     0          
C8       C      0.672180000000     0.965669000000     0.600600000000     0          
C8       C      0.636279000000     0.958480000000     0.640621000000     0          
C8       C      0.532899000000     0.861799000000     0.629400000000     0          
C8       C      0.536701000000     0.823100000000     0.602599000000     0          
C8       C      0.412130000000     0.728039000000     0.247299000000     0          
C8       C      0.920600000000     0.939600000000     0.259800000000     0          
C8       C      0.101760000000     0.747370000000     0.504199000000     0          
C8       C      0.127290000000     0.720710000000     0.492090000000     0          
C8       C      0.034330800000     0.706511000000     0.600600000000     0          
C8       C      0.041520100000     0.677800000000     0.640621000000     0          
C8       C      0.138200000000     0.671099000000     0.629400000000     0          
C8       C      0.176899000000     0.713601000000     0.602599000000     0          
C8       C      0.271960000000     0.684090000000     0.247299000000     0          
C8       C      0.060399500000     0.981000000000     0.259800000000     0          
C8       C      0.645610000000     0.747370000000     0.995801000000     0          
C8       C      0.593420000000     0.720710000000     0.007909540000     0          
C8       C      0.672180000000     0.706511000000     0.899400000000     0          
C8       C      0.636280000000     0.677800000000     0.859379000000     0          
C8       C      0.532899000000     0.671099000000     0.870600000000     0          
C8       C      0.536701000000     0.713601000000     0.897401000000     0          
C8       C      0.412131000000     0.684090000000     0.252701000000     0          
C8       C      0.920601000000     0.981000000000     0.240200000000     0          
C8       C      0.101759000000     0.354390000000     0.995801000000     0          
C8       C      0.127290000000     0.406580000000     0.007909540000     0          
C8       C      0.034330500000     0.327821000000     0.899400000000     0          
C8       C      0.041518800000     0.363719000000     0.859379000000     0          
C8       C      0.138200000000     0.467101000000     0.870600000000     0          
C8       C      0.176900000000     0.463301000000     0.897401000000     0          
C8       C      0.271959000000     0.587869000000     0.252701000000     0          
C8       C      0.060401300000     0.079400900000     0.240200000000     0          
C8       C      0.252630000000     0.898239000000     0.995801000000     0          
C8       C      0.279291000000     0.872711000000     0.007909500000     0          
C8       C      0.293490000000     0.965669000000     0.899400000000     0          
C8       C      0.322201000000     0.958480000000     0.859379000000     0          
C8       C      0.328900000000     0.861799000000     0.870600000000     0          
C8       C      0.286399000000     0.823100000000     0.897401000000     0          
C8       C      0.315909000000     0.728039000000     0.252701000000     0          
C8       C      0.019000200000     0.939600000000     0.240200000000     0          
C8       C      0.747370000000     0.645611000000     0.495801000000     0          
C8       C      0.720710000000     0.593420000000     0.507910000000     0          
C8       C      0.706510000000     0.672180000000     0.399400000000     0          
C8       C      0.677799000000     0.636279000000     0.359379000000     0          
C8       C      0.671100000000     0.532900000000     0.370600000000     0          
C8       C      0.713600000000     0.536700000000     0.397401000000     0          
C8       C      0.684089000000     0.412129000000     0.752701000000     0          
C8       C      0.981001000000     0.920600000000     0.740200000000     0          
C8       C      0.354390000000     0.101759000000     0.495801000000     0          
C8       C      0.406580000000     0.127290000000     0.507910000000     0          
C8       C      0.327820000000     0.034328900000     0.399400000000     0          
C8       C      0.363721000000     0.041520600000     0.359379000000     0          
C8       C      0.467100000000     0.138199000000     0.370600000000     0          
C8       C      0.463299000000     0.176901000000     0.397401000000     0          
C8       C      0.587869000000     0.271959000000     0.752701000000     0          
C8       C      0.079400700000     0.060400800000     0.740200000000     0          
C8       C      0.898241000000     0.252630000000     0.495801000000     0          
C8       C      0.872710000000     0.279291000000     0.507910000000     0          
C8       C      0.965669000000     0.293490000000     0.399400000000     0          
C8       C      0.958480000000     0.322201000000     0.359379000000     0          
C8       C      0.861799000000     0.328899000000     0.370600000000     0          
C8       C      0.823101000000     0.286400000000     0.397401000000     0          
C8       C      0.728041000000     0.315910000000     0.752701000000     0          
C8       C      0.939601000000     0.019000100000     0.740200000000     0          
C8       C      0.354390000000     0.252630000000     0.004199700000     0          
C8       C      0.406580000000     0.279291000000     0.992090000000     0          
C8       C      0.327820000000     0.293490000000     0.100600000000     0          
C8       C      0.363720000000     0.322201000000     0.140621000000     0          
C8       C      0.467101000000     0.328899000000     0.129400000000     0          
C8       C      0.463299000000     0.286400000000     0.102599000000     0          
C8       C      0.587869000000     0.315910000000     0.747299000000     0          
C8       C      0.079399300000     0.019000100000     0.759800000000     0          
C8       C      0.898241000000     0.645611000000     0.004199400000     0          
C8       C      0.872711000000     0.593420000000     0.992090000000     0          
C8       C      0.965670000000     0.672180000000     0.100600000000     0          
C8       C      0.958480000000     0.636279000000     0.140621000000     0          
C8       C      0.861800000000     0.532900000000     0.129400000000     0          
C8       C      0.823100000000     0.536700000000     0.102599000000     0          
C8       C      0.728040000000     0.412129000000     0.747299000000     0          
C8       C      0.939599000000     0.920600000000     0.759800000000     0          
C8       C      0.747370000000     0.101759000000     0.004199400000     0          
C8       C      0.720709000000     0.127290000000     0.992090000000     0          
C8       C      0.706509000000     0.034328900000     0.100600000000     0          
C8       C      0.677800000000     0.041520600000     0.140621000000     0          
C8       C      0.671099000000     0.138199000000     0.129400000000     0          
C8       C      0.713601000000     0.176901000000     0.102599000000     0          
C8       C      0.684090000000     0.271959000000     0.747299000000     0          
C8       C      0.981000000000     0.060400800000     0.759800000000     0          
C9       C      0.271430000000     0.383580000000     0.513501000000     0          
C9       C      0.306050000000     0.356450000000     0.612650000000     0          
C9       C      0.305300000000     0.452309000000     0.608600000000     0          
C9       C      0.616419000000     0.887849000000     0.513501000000     0          
C9       C      0.643549000000     0.949599000000     0.612650000000     0          
C9       C      0.547690000000     0.852989000000     0.608600000000     0          
C9       C      0.112149000000     0.728570000000     0.513501000000     0          
C9       C      0.050400500000     0.693950000000     0.612650000000     0          
C9       C      0.147010000000     0.694700000000     0.608600000000     0          
C9       C      0.616421000000     0.728570000000     0.986499000000     0          
C9       C      0.643550000000     0.693950000000     0.887350000000     0          
C9       C      0.547690000000     0.694700000000     0.891400000000     0          
C9       C      0.112151000000     0.383580000000     0.986499000000     0          
C9       C      0.050400000000     0.356450000000     0.887350000000     0          
C9       C      0.147009000000     0.452309000000     0.891400000000     0          
C9       C      0.271430000000     0.887849000000     0.986499000000     0          
C9       C      0.306050000000     0.949599000000     0.887350000000     0          
C9       C      0.305300000000     0.852989000000     0.891400000000     0          
C9       C      0.728571000000     0.616420000000     0.486499000000     0          
C9       C      0.693951000000     0.643551000000     0.387350000000     0          
C9       C      0.694699000000     0.547689000000     0.391400000000     0          
C9       C      0.383580000000     0.112149000000     0.486499000000     0          
C9       C      0.356450000000     0.050399100000     0.387350000000     0          
C9       C      0.452310000000     0.147009000000     0.391400000000     0          
C9       C      0.887851000000     0.271431000000     0.486499000000     0          
C9       C      0.949600000000     0.306050000000     0.387350000000     0          
C9       C      0.852990000000     0.305300000000     0.391400000000     0          
C9       C      0.383580000000     0.271431000000     0.013500800000     0          
C9       C      0.356451000000     0.306050000000     0.112650000000     0          
C9       C      0.452310000000     0.305300000000     0.108600000000     0          
C9       C      0.887850000000     0.616420000000     0.013500800000     0          
C9       C      0.949600000000     0.643551000000     0.112650000000     0          
C9       C      0.852990000000     0.547689000000     0.108600000000     0          
C9       C      0.728569000000     0.112149000000     0.013500800000     0          
C9       C      0.693949000000     0.050399100000     0.112650000000     0          
C9       C      0.694699000000     0.147009000000     0.108600000000     0          
C9       C      0.301550000000     0.603100000000     0.250000000000     0          
C9       C      0.032649800000     0.065299600000     0.250000000000     0          
C9       C      0.396899000000     0.698449000000     0.250000000000     0          
C9       C      0.934699000000     0.967350000000     0.250000000000     0          
C9       C      0.301551000000     0.698449000000     0.250000000000     0          
C9       C      0.032650300000     0.967350000000     0.250000000000     0          
C9       C      0.698450000000     0.396900000000     0.750000000000     0          
C9       C      0.967351000000     0.934701000000     0.750000000000     0          
C9       C      0.603100000000     0.301549000000     0.750000000000     0          
C9       C      0.065300900000     0.032650900000     0.750000000000     0          
C9       C      0.698449000000     0.301549000000     0.750000000000     0          
C9       C      0.967350000000     0.032650900000     0.750000000000     0          
C2       C      0.214810000000     0.350980000000     0.356950000000     0          
C2       C      0.328160000000     0.250400000000     0.694770000000     0          
C2       C      0.326120000000     0.580531000000     0.683949000000     0          
C2       C      0.649019000000     0.863830000000     0.356950000000     0          
C2       C      0.749601000000     0.077760600000     0.694770000000     0          
C2       C      0.419469000000     0.745590000000     0.683949000000     0          
C2       C      0.136171000000     0.785191000000     0.356950000000     0          
C2       C      0.922239000000     0.671840000000     0.694770000000     0          
C2       C      0.254410000000     0.673880000000     0.683949000000     0          
C2       C      0.649020000000     0.785191000000     0.143050000000     0          
C2       C      0.749601000000     0.671840000000     0.805230000000     0          
C2       C      0.419471000000     0.673880000000     0.816051000000     0          
C2       C      0.136170000000     0.350980000000     0.143050000000     0          
C2       C      0.922240000000     0.250400000000     0.805230000000     0          
C2       C      0.254411000000     0.580531000000     0.816051000000     0          
C2       C      0.214811000000     0.863830000000     0.143050000000     0          
C2       C      0.328160000000     0.077760600000     0.805230000000     0          
C2       C      0.326121000000     0.745590000000     0.816051000000     0          
C2       C      0.785190000000     0.649020000000     0.643050000000     0          
C2       C      0.671840000000     0.749601000000     0.305230000000     0          
C2       C      0.673881000000     0.419470000000     0.316051000000     0          
C2       C      0.350981000000     0.136170000000     0.643050000000     0          
C2       C      0.250400000000     0.922240000000     0.305230000000     0          
C2       C      0.580531000000     0.254411000000     0.316051000000     0          
C2       C      0.863829000000     0.214810000000     0.643050000000     0          
C2       C      0.077760900000     0.328160000000     0.305230000000     0          
C2       C      0.745591000000     0.326120000000     0.316051000000     0          
C2       C      0.350981000000     0.214810000000     0.856950000000     0          
C2       C      0.250399000000     0.328160000000     0.194770000000     0          
C2       C      0.580530000000     0.326120000000     0.183949000000     0          
C2       C      0.863830000000     0.649020000000     0.856950000000     0          
C2       C      0.077760700000     0.749601000000     0.194770000000     0          
C2       C      0.745589000000     0.419470000000     0.183949000000     0          
C2       C      0.785190000000     0.136170000000     0.856950000000     0          
C2       C      0.671840000000     0.922240000000     0.194770000000     0          
C2       C      0.673880000000     0.254411000000     0.183949000000     0          
C2       C      0.221700000000     0.443400000000     0.250000000000     0          
C2       C      0.110200000000     0.220399000000     0.250000000000     0          
C2       C      0.556601000000     0.778301000000     0.250000000000     0          
C2       C      0.779601000000     0.889800000000     0.250000000000     0          
C2       C      0.221700000000     0.778301000000     0.250000000000     0          
C2       C      0.110199000000     0.889800000000     0.250000000000     0          
C2       C      0.778301000000     0.556601000000     0.750000000000     0          
C2       C      0.889800000000     0.779599000000     0.750000000000     0          
C2       C      0.443400000000     0.221700000000     0.750000000000     0          
C2       C      0.220400000000     0.110201000000     0.750000000000     0          
C2       C      0.778300000000     0.221700000000     0.750000000000     0          
C2       C      0.889801000000     0.110201000000     0.750000000000     0          
C3       C      0.197449000000     0.335270000000     0.382690000000     0          
C3       C      0.244050000000     0.373290000000     0.361511000000     0          
C3       C      0.309870000000     0.239650000000     0.668390000000     0          
C3       C      0.340931000000     0.280169000000     0.703020000000     0          
C3       C      0.345810000000     0.570241000000     0.689139000000     0          
C3       C      0.301750000000     0.564840000000     0.664269000000     0          
C3       C      0.251539000000     0.459219000000     0.247441000000     0          
C3       C      0.107000000000     0.206300000000     0.222809000000     0          
C3       C      0.664730000000     0.862181000000     0.382690000000     0          
C3       C      0.626711000000     0.870760000000     0.361511000000     0          
C3       C      0.760350000000     0.070220500000     0.668390000000     0          
C3       C      0.719831000000     0.060760400000     0.703020000000     0          
C3       C      0.429760000000     0.775571000000     0.689139000000     0          
C3       C      0.435159000000     0.736909000000     0.664269000000     0          
C3       C      0.540780000000     0.792320000000     0.247441000000     0          
C3       C      0.793701000000     0.900701000000     0.222809000000     0          
C3       C      0.137819000000     0.802550000000     0.382690000000     0          
C3       C      0.129239000000     0.755949000000     0.361511000000     0          
C3       C      0.929779000000     0.690130000000     0.668390000000     0          
C3       C      0.939241000000     0.659071000000     0.703020000000     0          
C3       C      0.224431000000     0.654190000000     0.689139000000     0          
C3       C      0.263090000000     0.698250000000     0.664269000000     0          
C3       C      0.207679000000     0.748460000000     0.247441000000     0          
C3       C      0.099301100000     0.893001000000     0.222809000000     0          
C3       C      0.664731000000     0.802550000000     0.117310000000     0          
C3       C      0.626710000000     0.755949000000     0.138489000000     0          
C3       C      0.760351000000     0.690130000000     0.831610000000     0          
C3       C      0.719830000000     0.659071000000     0.796980000000     0          
C3       C      0.429759000000     0.654190000000     0.810861000000     0          
C3       C      0.435160000000     0.698250000000     0.835731000000     0          
C3       C      0.540781000000     0.748460000000     0.252559000000     0          
C3       C      0.793700000000     0.893001000000     0.277191000000     0          
C3       C      0.137821000000     0.335270000000     0.117310000000     0          
C3       C      0.129240000000     0.373290000000     0.138489000000     0          
C3       C      0.929780000000     0.239650000000     0.831610000000     0          
C3       C      0.939239000000     0.280169000000     0.796980000000     0          
C3       C      0.224431000000     0.570241000000     0.810861000000     0          
C3       C      0.263090000000     0.564840000000     0.835731000000     0          
C3       C      0.207680000000     0.459219000000     0.252559000000     0          
C3       C      0.099299700000     0.206300000000     0.277191000000     0          
C3       C      0.197451000000     0.862181000000     0.117310000000     0          
C3       C      0.244049000000     0.870760000000     0.138489000000     0          
C3       C      0.309871000000     0.070220500000     0.831610000000     0          
C3       C      0.340930000000     0.060760400000     0.796980000000     0          
C3       C      0.345811000000     0.775571000000     0.810861000000     0          
C3       C      0.301750000000     0.736909000000     0.835731000000     0          
C3       C      0.251540000000     0.792320000000     0.252559000000     0          
C3       C      0.106999000000     0.900701000000     0.277191000000     0          
C3       C      0.802551000000     0.664731000000     0.617310000000     0          
C3       C      0.755951000000     0.626711000000     0.638489000000     0          
C3       C      0.690131000000     0.760351000000     0.331610000000     0          
C3       C      0.659069000000     0.719829000000     0.296980000000     0          
C3       C      0.654190000000     0.429760000000     0.310861000000     0          
C3       C      0.698250000000     0.435160000000     0.335731000000     0          
C3       C      0.748461000000     0.540779000000     0.752559000000     0          
C3       C      0.893000000000     0.793701000000     0.777191000000     0          
C3       C      0.335270000000     0.137820000000     0.617310000000     0          
C3       C      0.373290000000     0.129241000000     0.638489000000     0          
C3       C      0.239651000000     0.929780000000     0.331610000000     0          
C3       C      0.280169000000     0.939240000000     0.296980000000     0          
C3       C      0.570240000000     0.224430000000     0.310861000000     0          
C3       C      0.564840000000     0.263089000000     0.335731000000     0          
C3       C      0.459221000000     0.207681000000     0.752559000000     0          
C3       C      0.206299000000     0.099300000000     0.777191000000     0          
C3       C      0.862181000000     0.197450000000     0.617310000000     0          
C3       C      0.870760000000     0.244049000000     0.638489000000     0          
C3       C      0.070221100000     0.309870000000     0.331610000000     0          
C3       C      0.060759400000     0.340930000000     0.296980000000     0          
C3       C      0.775570000000     0.345811000000     0.310861000000     0          
C3       C      0.736910000000     0.301751000000     0.335731000000     0          
C3       C      0.792321000000     0.251541000000     0.752559000000     0          
C3       C      0.900699000000     0.107000000000     0.777191000000     0          
C3       C      0.335269000000     0.197450000000     0.882690000000     0          
C3       C      0.373289000000     0.244049000000     0.861511000000     0          
C3       C      0.239649000000     0.309870000000     0.168390000000     0          
C3       C      0.280170000000     0.340930000000     0.203020000000     0          
C3       C      0.570241000000     0.345811000000     0.189139000000     0          
C3       C      0.564841000000     0.301751000000     0.164269000000     0          
C3       C      0.459220000000     0.251541000000     0.747441000000     0          
C3       C      0.206301000000     0.107000000000     0.722809000000     0          
C3       C      0.862180000000     0.664731000000     0.882690000000     0          
C3       C      0.870760000000     0.626711000000     0.861511000000     0          
C3       C      0.070219900000     0.760351000000     0.168390000000     0          
C3       C      0.060760200000     0.719829000000     0.203020000000     0          
C3       C      0.775570000000     0.429760000000     0.189139000000     0          
C3       C      0.736910000000     0.435160000000     0.164269000000     0          
C3       C      0.792319000000     0.540779000000     0.747441000000     0          
C3       C      0.900701000000     0.793701000000     0.722809000000     0          
C3       C      0.802549000000     0.137820000000     0.882690000000     0          
C3       C      0.755951000000     0.129241000000     0.861511000000     0          
C3       C      0.690129000000     0.929780000000     0.168390000000     0          
C3       C      0.659071000000     0.939240000000     0.203020000000     0          
C3       C      0.654190000000     0.224430000000     0.189139000000     0          
C3       C      0.698249000000     0.263089000000     0.164269000000     0          
C3       C      0.748460000000     0.207681000000     0.747441000000     0          
C3       C      0.893001000000     0.099300000000     0.722809000000     0          
H1       H      0.177900000000     0.320400000000     0.379601000000     0          
H1       H      0.255700000000     0.383800000000     0.344300000000     0          
H1       H      0.301300000000     0.219700000000     0.662901000000     0          
H1       H      0.353200000000     0.287401000000     0.720699000000     0          
H1       H      0.362100000000     0.580700000000     0.702299000000     0          
H1       H      0.288600000000     0.571699000000     0.660800000000     0          
H1       H      0.261899000000     0.449000000000     0.245600000000     0          
H1       H      0.115400000000     0.216699000000     0.204301000000     0          
H1       H      0.679600000000     0.857500000000     0.379601000000     0          
H1       H      0.616201000000     0.871901000000     0.344300000000     0          
H1       H      0.780301000000     0.081600600000     0.662901000000     0          
H1       H      0.712600000000     0.065799000000     0.720699000000     0          
H1       H      0.419299000000     0.781399000000     0.702299000000     0          
H1       H      0.428299000000     0.716899000000     0.660800000000     0          
H1       H      0.551001000000     0.812901000000     0.245600000000     0          
H1       H      0.783299000000     0.898701000000     0.204301000000     0          
H1       H      0.142501000000     0.822101000000     0.379601000000     0          
H1       H      0.128100000000     0.744300000000     0.344300000000     0          
H1       H      0.918400000000     0.698700000000     0.662901000000     0          
H1       H      0.934200000000     0.646801000000     0.720699000000     0          
H1       H      0.218600000000     0.637900000000     0.702299000000     0          
H1       H      0.283100000000     0.711401000000     0.660800000000     0          
H1       H      0.187101000000     0.738101000000     0.245600000000     0          
H1       H      0.101300000000     0.884599000000     0.204301000000     0          
H1       H      0.679600000000     0.822101000000     0.120399000000     0          
H1       H      0.616201000000     0.744300000000     0.155700000000     0          
H1       H      0.780300000000     0.698700000000     0.837099000000     0          
H1       H      0.712601000000     0.646801000000     0.779301000000     0          
H1       H      0.419300000000     0.637900000000     0.797701000000     0          
H1       H      0.428301000000     0.711401000000     0.839200000000     0          
H1       H      0.551000000000     0.738101000000     0.254400000000     0          
H1       H      0.783300000000     0.884599000000     0.295699000000     0          
H1       H      0.142500000000     0.320400000000     0.120399000000     0          
H1       H      0.128100000000     0.383800000000     0.155700000000     0          
H1       H      0.918400000000     0.219700000000     0.837099000000     0          
H1       H      0.934201000000     0.287401000000     0.779301000000     0          
H1       H      0.218599000000     0.580700000000     0.797701000000     0          
H1       H      0.283099000000     0.571699000000     0.839200000000     0          
H1       H      0.187100000000     0.449000000000     0.254400000000     0          
H1       H      0.101299000000     0.216699000000     0.295699000000     0          
H1       H      0.177900000000     0.857500000000     0.120399000000     0          
H1       H      0.255700000000     0.871901000000     0.155700000000     0          
H1       H      0.301300000000     0.081600600000     0.837099000000     0          
H1       H      0.353199000000     0.065799000000     0.779301000000     0          
H1       H      0.362100000000     0.781399000000     0.797701000000     0          
H1       H      0.288600000000     0.716899000000     0.839200000000     0          
H1       H      0.261900000000     0.812901000000     0.254400000000     0          
H1       H      0.115401000000     0.898701000000     0.295699000000     0          
H1       H      0.822100000000     0.679600000000     0.620399000000     0          
H1       H      0.744300000000     0.616201000000     0.655700000000     0          
H1       H      0.698701000000     0.780301000000     0.337099000000     0          
H1       H      0.646800000000     0.712600000000     0.279301000000     0          
H1       H      0.637900000000     0.419301000000     0.297701000000     0          
H1       H      0.711399000000     0.428299000000     0.339200000000     0          
H1       H      0.738101000000     0.551001000000     0.754400000000     0          
H1       H      0.884599000000     0.783299000000     0.795699000000     0          
H1       H      0.320401000000     0.142501000000     0.620399000000     0          
H1       H      0.383799000000     0.128100000000     0.655700000000     0          
H1       H      0.219699000000     0.918400000000     0.337099000000     0          
H1       H      0.287399000000     0.934199000000     0.279301000000     0          
H1       H      0.580700000000     0.218599000000     0.297701000000     0          
H1       H      0.571700000000     0.283099000000     0.339200000000     0          
H1       H      0.449000000000     0.187100000000     0.754400000000     0          
H1       H      0.216701000000     0.101300000000     0.795699000000     0          
H1       H      0.857500000000     0.177900000000     0.620399000000     0          
H1       H      0.871901000000     0.255700000000     0.655700000000     0          
H1       H      0.081600600000     0.301300000000     0.337099000000     0          
H1       H      0.065800700000     0.353200000000     0.279301000000     0          
H1       H      0.781400000000     0.362101000000     0.297701000000     0          
H1       H      0.716900000000     0.288600000000     0.339200000000     0          
H1       H      0.812900000000     0.261900000000     0.754400000000     0          
H1       H      0.898699000000     0.115399000000     0.795699000000     0          
H1       H      0.320400000000     0.177900000000     0.879601000000     0          
H1       H      0.383799000000     0.255700000000     0.844300000000     0          
H1       H      0.219700000000     0.301300000000     0.162901000000     0          
H1       H      0.287399000000     0.353200000000     0.220699000000     0          
H1       H      0.580701000000     0.362101000000     0.202299000000     0          
H1       H      0.571700000000     0.288600000000     0.160800000000     0          
H1       H      0.449000000000     0.261900000000     0.745600000000     0          
H1       H      0.216700000000     0.115399000000     0.704301000000     0          
H1       H      0.857500000000     0.679600000000     0.879601000000     0          
H1       H      0.871900000000     0.616201000000     0.844300000000     0          
H1       H      0.081600100000     0.780301000000     0.162901000000     0          
H1       H      0.065799600000     0.712600000000     0.220699000000     0          
H1       H      0.781401000000     0.419301000000     0.202299000000     0          
H1       H      0.716900000000     0.428299000000     0.160800000000     0          
H1       H      0.812900000000     0.551001000000     0.745600000000     0          
H1       H      0.898701000000     0.783299000000     0.704301000000     0          
H1       H      0.822100000000     0.142501000000     0.879601000000     0          
H1       H      0.744301000000     0.128100000000     0.844300000000     0          
H1       H      0.698701000000     0.918400000000     0.162901000000     0          
H1       H      0.646801000000     0.934199000000     0.220699000000     0          
H1       H      0.637899000000     0.218599000000     0.202299000000     0          
H1       H      0.711399000000     0.283099000000     0.160800000000     0          
H1       H      0.738100000000     0.187100000000     0.745600000000     0          
H1       H      0.884599000000     0.101300000000     0.704301000000     0          
C4       C      0.209331000000     0.341871000000     0.413000000000     0          
C4       C      0.255920000000     0.379889000000     0.391821000000     0          
C4       C      0.304349000000     0.258650000000     0.650269000000     0          
C4       C      0.335410000000     0.299170000000     0.684899000000     0          
C4       C      0.341141000000     0.544271000000     0.674650000000     0          
C4       C      0.297070000000     0.538860000000     0.649790000000     0          
C4       C      0.267330000000     0.489890000000     0.247391000000     0          
C4       C      0.090900800000     0.175201000000     0.222790000000     0          
C4       C      0.658129000000     0.867459000000     0.413000000000     0          
C4       C      0.620109000000     0.876029000000     0.391821000000     0          
C4       C      0.741350000000     0.045700100000     0.650269000000     0          
C4       C      0.700829000000     0.036240000000     0.684899000000     0          
C4       C      0.455730000000     0.796870000000     0.674650000000     0          
C4       C      0.461140000000     0.758211000000     0.649790000000     0          
C4       C      0.510111000000     0.777440000000     0.247391000000     0          
C4       C      0.824801000000     0.915701000000     0.222790000000     0          
C4       C      0.132541000000     0.790671000000     0.413000000000     0          
C4       C      0.123970000000     0.744081000000     0.391821000000     0          
C4       C      0.954299000000     0.695650000000     0.650269000000     0          
C4       C      0.963761000000     0.664591000000     0.684899000000     0          
C4       C      0.203130000000     0.658860000000     0.674650000000     0          
C4       C      0.241791000000     0.702931000000     0.649790000000     0          
C4       C      0.222559000000     0.732669000000     0.247391000000     0          
C4       C      0.084300700000     0.909100000000     0.222790000000     0          
C4       C      0.658130000000     0.790671000000     0.087000200000     0          
C4       C      0.620110000000     0.744081000000     0.108179000000     0          
C4       C      0.741351000000     0.695650000000     0.849731000000     0          
C4       C      0.700830000000     0.664591000000     0.815101000000     0          
C4       C      0.455730000000     0.658860000000     0.825350000000     0          
C4       C      0.461140000000     0.702931000000     0.850210000000     0          
C4       C      0.510110000000     0.732669000000     0.252609000000     0          
C4       C      0.824799000000     0.909100000000     0.277210000000     0          
C4       C      0.132540000000     0.341871000000     0.087000200000     0          
C4       C      0.123969000000     0.379889000000     0.108179000000     0          
C4       C      0.954301000000     0.258650000000     0.849731000000     0          
C4       C      0.963760000000     0.299170000000     0.815101000000     0          
C4       C      0.203130000000     0.544271000000     0.825350000000     0          
C4       C      0.241790000000     0.538860000000     0.850210000000     0          
C4       C      0.222560000000     0.489890000000     0.252609000000     0          
C4       C      0.084299700000     0.175201000000     0.277210000000     0          
C4       C      0.209330000000     0.867459000000     0.087000200000     0          
C4       C      0.255921000000     0.876029000000     0.108179000000     0          
C4       C      0.304350000000     0.045700100000     0.849731000000     0          
C4       C      0.335411000000     0.036240000000     0.815101000000     0          
C4       C      0.341140000000     0.796870000000     0.825350000000     0          
C4       C      0.297071000000     0.758211000000     0.850210000000     0          
C4       C      0.267329000000     0.777440000000     0.252609000000     0          
C4       C      0.090899900000     0.915701000000     0.277210000000     0          
C4       C      0.790669000000     0.658130000000     0.587000000000     0          
C4       C      0.744079000000     0.620109000000     0.608179000000     0          
C4       C      0.695649000000     0.741351000000     0.349731000000     0          
C4       C      0.664590000000     0.700831000000     0.315101000000     0          
C4       C      0.658859000000     0.455730000000     0.325350000000     0          
C4       C      0.702929000000     0.461139000000     0.350210000000     0          
C4       C      0.732671000000     0.510111000000     0.752609000000     0          
C4       C      0.909099000000     0.824800000000     0.777210000000     0          
C4       C      0.341870000000     0.132539000000     0.587000000000     0          
C4       C      0.379890000000     0.123969000000     0.608179000000     0          
C4       C      0.258650000000     0.954300000000     0.349731000000     0          
C4       C      0.299171000000     0.963761000000     0.315101000000     0          
C4       C      0.544270000000     0.203130000000     0.325350000000     0          
C4       C      0.538860000000     0.241790000000     0.350210000000     0          
C4       C      0.489890000000     0.222561000000     0.752609000000     0          
C4       C      0.175199000000     0.084299700000     0.777210000000     0          
C4       C      0.867459000000     0.209330000000     0.587000000000     0          
C4       C      0.876030000000     0.255920000000     0.608179000000     0          
C4       C      0.045700900000     0.304350000000     0.349731000000     0          
C4       C      0.036239300000     0.335410000000     0.315101000000     0          
C4       C      0.796871000000     0.341141000000     0.325350000000     0          
C4       C      0.758210000000     0.297070000000     0.350210000000     0          
C4       C      0.777441000000     0.267331000000     0.752609000000     0          
C4       C      0.915700000000     0.090900900000     0.777210000000     0          
C4       C      0.341870000000     0.209330000000     0.913000000000     0          
C4       C      0.379890000000     0.255920000000     0.891821000000     0          
C4       C      0.258649000000     0.304350000000     0.150269000000     0          
C4       C      0.299170000000     0.335410000000     0.184899000000     0          
C4       C      0.544270000000     0.341141000000     0.174650000000     0          
C4       C      0.538860000000     0.297070000000     0.149790000000     0          
C4       C      0.489890000000     0.267331000000     0.747391000000     0          
C4       C      0.175201000000     0.090900900000     0.722790000000     0          
C4       C      0.867460000000     0.658130000000     0.913000000000     0          
C4       C      0.876031000000     0.620109000000     0.891821000000     0          
C4       C      0.045701200000     0.741351000000     0.150269000000     0          
C4       C      0.036240700000     0.700831000000     0.184899000000     0          
C4       C      0.796870000000     0.455730000000     0.174650000000     0          
C4       C      0.758210000000     0.461139000000     0.149790000000     0          
C4       C      0.777440000000     0.510111000000     0.747391000000     0          
C4       C      0.915701000000     0.824800000000     0.722790000000     0          
C4       C      0.790669000000     0.132539000000     0.913000000000     0          
C4       C      0.744079000000     0.123969000000     0.891821000000     0          
C4       C      0.695650000000     0.954300000000     0.150269000000     0          
C4       C      0.664590000000     0.963761000000     0.184899000000     0          
C4       C      0.658860000000     0.203130000000     0.174650000000     0          
C4       C      0.702929000000     0.241790000000     0.149790000000     0          
C4       C      0.732671000000     0.222561000000     0.747391000000     0          
C4       C      0.909100000000     0.084299700000     0.722790000000     0          
H2       H      0.197700000000     0.331401000000     0.430199000000     0          
H2       H      0.275500000000     0.394801000000     0.394900000000     0          
H2       H      0.292101000000     0.251401000000     0.632600000000     0          
H2       H      0.344001000000     0.319100000000     0.690401000000     0          
H2       H      0.354300000000     0.537399000000     0.678100000000     0          
H2       H      0.280801000000     0.528401000000     0.636601000000     0          
H2       H      0.287900000000     0.499601000000     0.245600000000     0          
H2       H      0.087599300000     0.165099000000     0.203800000000     0          
H2       H      0.668601000000     0.866301000000     0.430199000000     0          
H2       H      0.605199000000     0.880699000000     0.394900000000     0          
H2       H      0.748599000000     0.040699300000     0.632600000000     0          
H2       H      0.680900000000     0.024899900000     0.690401000000     0          
H2       H      0.462600000000     0.816900000000     0.678100000000     0          
H2       H      0.471600000000     0.752400000000     0.636601000000     0          
H2       H      0.500399000000     0.788300000000     0.245600000000     0          
H2       H      0.834899000000     0.922500000000     0.203800000000     0          
H2       H      0.133699000000     0.802300000000     0.430199000000     0          
H2       H      0.119300000000     0.724499000000     0.394900000000     0          
H2       H      0.959300000000     0.707901000000     0.632600000000     0          
H2       H      0.975100000000     0.656001000000     0.690401000000     0          
H2       H      0.183099000000     0.645700000000     0.678100000000     0          
H2       H      0.247600000000     0.719201000000     0.636601000000     0          
H2       H      0.211700000000     0.712100000000     0.245600000000     0          
H2       H      0.077500800000     0.912400000000     0.203800000000     0          
H2       H      0.668600000000     0.802300000000     0.069801000000     0          
H2       H      0.605199000000     0.724499000000     0.105100000000     0          
H2       H      0.748601000000     0.707901000000     0.867400000000     0          
H2       H      0.680901000000     0.656001000000     0.809599000000     0          
H2       H      0.462600000000     0.645700000000     0.821900000000     0          
H2       H      0.471601000000     0.719201000000     0.863399000000     0          
H2       H      0.500401000000     0.712100000000     0.254400000000     0          
H2       H      0.834900000000     0.912400000000     0.296200000000     0          
H2       H      0.133701000000     0.331401000000     0.069801000000     0          
H2       H      0.119301000000     0.394801000000     0.105100000000     0          
H2       H      0.959300000000     0.251401000000     0.867400000000     0          
H2       H      0.975099000000     0.319100000000     0.809599000000     0          
H2       H      0.183099000000     0.537399000000     0.821900000000     0          
H2       H      0.247600000000     0.528401000000     0.863399000000     0          
H2       H      0.211701000000     0.499601000000     0.254400000000     0          
H2       H      0.077499700000     0.165099000000     0.296200000000     0          
H2       H      0.197700000000     0.866301000000     0.069801000000     0          
H2       H      0.275500000000     0.880699000000     0.105100000000     0          
H2       H      0.292100000000     0.040699300000     0.867400000000     0          
H2       H      0.344000000000     0.024899900000     0.809599000000     0          
H2       H      0.354300000000     0.816900000000     0.821900000000     0          
H2       H      0.280800000000     0.752400000000     0.863399000000     0          
H2       H      0.287901000000     0.788300000000     0.254400000000     0          
H2       H      0.087600200000     0.922500000000     0.296200000000     0          
H2       H      0.802300000000     0.668600000000     0.569801000000     0          
H2       H      0.724500000000     0.605200000000     0.605100000000     0          
H2       H      0.707899000000     0.748600000000     0.367400000000     0          
H2       H      0.656000000000     0.680901000000     0.309599000000     0          
H2       H      0.645699000000     0.462599000000     0.321900000000     0          
H2       H      0.719199000000     0.471600000000     0.363399000000     0          
H2       H      0.712101000000     0.500400000000     0.754400000000     0          
H2       H      0.912400000000     0.834899000000     0.796200000000     0          
H2       H      0.331400000000     0.133700000000     0.569801000000     0          
H2       H      0.394800000000     0.119299000000     0.605100000000     0          
H2       H      0.251400000000     0.959299000000     0.367400000000     0          
H2       H      0.319100000000     0.975101000000     0.309599000000     0          
H2       H      0.537400000000     0.183100000000     0.321900000000     0          
H2       H      0.528400000000     0.247601000000     0.363399000000     0          
H2       H      0.499601000000     0.211700000000     0.754400000000     0          
H2       H      0.165101000000     0.077500900000     0.796200000000     0          
H2       H      0.866301000000     0.197701000000     0.569801000000     0          
H2       H      0.880699000000     0.275499000000     0.605100000000     0          
H2       H      0.040700400000     0.292100000000     0.367400000000     0          
H2       H      0.024900500000     0.344000000000     0.309599000000     0          
H2       H      0.816901000000     0.354301000000     0.321900000000     0          
H2       H      0.752401000000     0.280800000000     0.363399000000     0          
H2       H      0.788301000000     0.287900000000     0.754400000000     0          
H2       H      0.922500000000     0.087600300000     0.796200000000     0          
H2       H      0.331400000000     0.197701000000     0.930199000000     0          
H2       H      0.394801000000     0.275499000000     0.894900000000     0          
H2       H      0.251400000000     0.292100000000     0.132600000000     0          
H2       H      0.319099000000     0.344000000000     0.190401000000     0          
H2       H      0.537400000000     0.354301000000     0.178100000000     0          
H2       H      0.528399000000     0.280800000000     0.136601000000     0          
H2       H      0.499600000000     0.287900000000     0.745600000000     0          
H2       H      0.165101000000     0.087600300000     0.703800000000     0          
H2       H      0.866300000000     0.668600000000     0.930199000000     0          
H2       H      0.880700000000     0.605200000000     0.894900000000     0          
H2       H      0.040700700000     0.748600000000     0.132600000000     0          
H2       H      0.024901200000     0.680901000000     0.190401000000     0          
H2       H      0.816900000000     0.462599000000     0.178100000000     0          
H2       H      0.752401000000     0.471600000000     0.136601000000     0          
H2       H      0.788299000000     0.500400000000     0.745600000000     0          
H2       H      0.922499000000     0.834899000000     0.703800000000     0          
H2       H      0.802300000000     0.133700000000     0.930199000000     0          
H2       H      0.724499000000     0.119299000000     0.894900000000     0          
H2       H      0.707899000000     0.959299000000     0.132600000000     0          
H2       H      0.656000000000     0.975101000000     0.190401000000     0          
H2       H      0.645700000000     0.183100000000     0.178100000000     0          
H2       H      0.719200000000     0.247601000000     0.136601000000     0          
H2       H      0.712099000000     0.211700000000     0.745600000000     0          
H2       H      0.912400000000     0.077500900000     0.703800000000     0          
C5       C      0.238561000000     0.364181000000     0.417561000000     0          
C5       C      0.317121000000     0.288411000000     0.658519000000     0          
C5       C      0.316760000000     0.528580000000     0.654970000000     0          
C5       C      0.635819000000     0.874380000000     0.417561000000     0          
C5       C      0.711591000000     0.028711000000     0.658519000000     0          
C5       C      0.471421000000     0.788180000000     0.654970000000     0          
C5       C      0.125620000000     0.761440000000     0.417561000000     0          
C5       C      0.971291000000     0.682881000000     0.658519000000     0          
C5       C      0.211819000000     0.683240000000     0.654970000000     0          
C5       C      0.635820000000     0.761440000000     0.082439300000     0          
C5       C      0.711590000000     0.682881000000     0.841481000000     0          
C5       C      0.471421000000     0.683240000000     0.845030000000     0          
C5       C      0.125620000000     0.364181000000     0.082439300000     0          
C5       C      0.971290000000     0.288411000000     0.841481000000     0          
C5       C      0.211820000000     0.528580000000     0.845030000000     0          
C5       C      0.238561000000     0.874380000000     0.082439300000     0          
C5       C      0.317120000000     0.028711000000     0.841481000000     0          
C5       C      0.316759000000     0.788180000000     0.845030000000     0          
C5       C      0.761440000000     0.635820000000     0.582439000000     0          
C5       C      0.682879000000     0.711590000000     0.341481000000     0          
C5       C      0.683240000000     0.471420000000     0.345030000000     0          
C5       C      0.364181000000     0.125620000000     0.582439000000     0          
C5       C      0.288409000000     0.971290000000     0.341481000000     0          
C5       C      0.528579000000     0.211820000000     0.345030000000     0          
C5       C      0.874380000000     0.238560000000     0.582439000000     0          
C5       C      0.028709100000     0.317120000000     0.341481000000     0          
C5       C      0.788181000000     0.316760000000     0.345030000000     0          
C5       C      0.364180000000     0.238560000000     0.917561000000     0          
C5       C      0.288411000000     0.317120000000     0.158519000000     0          
C5       C      0.528579000000     0.316760000000     0.154970000000     0          
C5       C      0.874380000000     0.635820000000     0.917561000000     0          
C5       C      0.028710100000     0.711590000000     0.158519000000     0          
C5       C      0.788180000000     0.471420000000     0.154970000000     0          
C5       C      0.761440000000     0.125620000000     0.917561000000     0          
C5       C      0.682881000000     0.971290000000     0.158519000000     0          
C5       C      0.683241000000     0.211820000000     0.154970000000     0          
C5       C      0.253350000000     0.506699000000     0.250000000000     0          
C5       C      0.079750500000     0.159501000000     0.250000000000     0          
C5       C      0.493300000000     0.746651000000     0.250000000000     0          
C5       C      0.840500000000     0.920249000000     0.250000000000     0          
C5       C      0.253351000000     0.746651000000     0.250000000000     0          
C5       C      0.079748900000     0.920249000000     0.250000000000     0          
C5       C      0.746650000000     0.493299000000     0.750000000000     0          
C5       C      0.920250000000     0.840500000000     0.750000000000     0          
C5       C      0.506701000000     0.253350000000     0.750000000000     0          
C5       C      0.159499000000     0.079749400000     0.750000000000     0          
C5       C      0.746649000000     0.253350000000     0.750000000000     0          
C5       C      0.920250000000     0.079749400000     0.750000000000     0          
C1       C      0.200201000000     0.346190000000     0.324799000000     0          
C1       C      0.329910000000     0.225000000000     0.710051000000     0          
C1       C      0.330399000000     0.606199000000     0.704400000000     0          
C1       C      0.653809000000     0.854010000000     0.324799000000     0          
C1       C      0.774999000000     0.104909000000     0.710051000000     0          
C1       C      0.393800000000     0.724199000000     0.704400000000     0          
C1       C      0.145990000000     0.799800000000     0.324799000000     0          
C1       C      0.895090000000     0.670089000000     0.710051000000     0          
C1       C      0.275800000000     0.669601000000     0.704400000000     0          
C1       C      0.653810000000     0.799800000000     0.175201000000     0          
C1       C      0.774999000000     0.670089000000     0.789949000000     0          
C1       C      0.393800000000     0.669601000000     0.795600000000     0          
C1       C      0.145989000000     0.346190000000     0.175201000000     0          
C1       C      0.895090000000     0.225000000000     0.789949000000     0          
C1       C      0.275799000000     0.606199000000     0.795600000000     0          
C1       C      0.200201000000     0.854010000000     0.175201000000     0          
C1       C      0.329910000000     0.104909000000     0.789949000000     0          
C1       C      0.330400000000     0.724199000000     0.795600000000     0          
C1       C      0.799799000000     0.653810000000     0.675201000000     0          
C1       C      0.670090000000     0.775000000000     0.289949000000     0          
C1       C      0.669600000000     0.393799000000     0.295600000000     0          
C1       C      0.346191000000     0.145990000000     0.675201000000     0          
C1       C      0.225000000000     0.895089000000     0.289949000000     0          
C1       C      0.606199000000     0.275799000000     0.295600000000     0          
C1       C      0.854010000000     0.200200000000     0.675201000000     0          
C1       C      0.104909000000     0.329909000000     0.289949000000     0          
C1       C      0.724200000000     0.330400000000     0.295600000000     0          
C1       C      0.346190000000     0.200200000000     0.824799000000     0          
C1       C      0.225000000000     0.329909000000     0.210051000000     0          
C1       C      0.606200000000     0.330400000000     0.204400000000     0          
C1       C      0.854011000000     0.653810000000     0.824799000000     0          
C1       C      0.104910000000     0.775000000000     0.210051000000     0          
C1       C      0.724200000000     0.393799000000     0.204400000000     0          
C1       C      0.799799000000     0.145990000000     0.824799000000     0          
C1       C      0.670089000000     0.895089000000     0.210051000000     0          
C1       C      0.669600000000     0.275799000000     0.204400000000     0          
C1       C      0.205150000000     0.410300000000     0.250000000000     0          
C1       C      0.126950000000     0.253900000000     0.250000000000     0          
C1       C      0.589700000000     0.794850000000     0.250000000000     0          
C1       C      0.746100000000     0.873051000000     0.250000000000     0          
C1       C      0.205151000000     0.794850000000     0.250000000000     0          
C1       C      0.126950000000     0.873051000000     0.250000000000     0          
C1       C      0.794850000000     0.589700000000     0.750000000000     0          
C1       C      0.873050000000     0.746101000000     0.750000000000     0          
C1       C      0.410301000000     0.205150000000     0.750000000000     0          
C1       C      0.253900000000     0.126950000000     0.750000000000     0          
C1       C      0.794849000000     0.205150000000     0.750000000000     0          
C1       C      0.873050000000     0.126950000000     0.750000000000     0          
O1       O      0.333333000000     0.666666000000     0.750000000000     0          
O1       O      0.666667000000     0.333334000000     0.250000000000     0          
O1       O      0.166595000000     0.333190000000     0.250000000000     0          
O1       O      0.666810000000     0.833406000000     0.250000000000     0          
O1       O      0.166595000000     0.833406000000     0.250000000000     0          
O1       O      0.833405000000     0.666811000000     0.750000000000     0          
O1       O      0.333190000000     0.166595000000     0.750000000000     0          
O1       O      0.833405000000     0.166595000000     0.750000000000     0          


